/*--------------------------------*- C++ -*----------------------------------*\
  =========                 |
  \\      /  F ield         | OpenFOAM: The Open Source CFD Toolbox
   \\    /   O peration     | Website:  https://openfoam.org
    \\  /    A nd           | Version:  12
     \\/     M anipulation  |
\*---------------------------------------------------------------------------*/
FoamFile
{
    format      ascii;
    class       extendedFeatureEdgeMesh;
    location    "constant/extendedFeatureEdgeMesh";
    object      gas_gen.extendedFeatureEdgeMesh;
}
// * * * * * * * * * * * * * * * * * * * * * * * * * * * * * * * * * * * * * //

// points

28
(
(-1.14493 0.473407 0)
(-1.14493 0.549407 0)
(-0.743464 0.261407 0)
(-0.743464 0.480276 0)
(-0.743464 0.761407 0)
(-0.743464 0.52445 0)
(0.256536 0.261407 0)
(0.256536 0.761407 0)
(-1.14493 0.549407 0.02)
(-1.14493 0.473407 0.02)
(-0.743464 0.480276 0.02)
(-0.743464 0.261407 0.02)
(-0.743464 0.761407 0.02)
(-0.743464 0.52445 0.02)
(0.256536 0.261407 0.02)
(0.256536 0.761407 0.02)
(-0.695149 0.484503 0)
(-0.695149 0.511581 0)
(-0.695149 0.486511 0)
(-0.695149 0.509511 0)
(-0.695149 0.484503 0.02)
(-0.695149 0.511581 0.02)
(-0.695149 0.486511 0.02)
(-0.695149 0.509511 0.02)
(-0.844926 0.473407 0)
(-0.844926 0.549407 0)
(-0.844926 0.549407 0.02)
(-0.844926 0.473407 0.02)
)

// edges

40
(
(24 0)
(0 1)
(1 25)
(2 3)
(3 16)
(5 4)
(17 5)
(16 18)
(19 17)
(6 2)
(4 7)
(7 6)
(18 24)
(25 19)
(8 9)
(26 8)
(9 27)
(10 11)
(20 10)
(12 13)
(13 21)
(22 20)
(21 23)
(11 14)
(15 12)
(14 15)
(27 22)
(23 26)
(8 1)
(0 9)
(12 4)
(5 13)
(10 3)
(2 11)
(14 6)
(7 15)
(22 18)
(16 20)
(17 21)
(19 23)
)

// concaveStart mixedStart nonFeatureStart
16 16 24
// internalStart flatStart openStart multipleStart
36 40 40 40
// normals

50
(
(0 -0 -1)
(0 -1 0)
(-0 0 -1)
(-1 0 0)
(0 1 0)
(0 0 -1)
(-1 0 0)
(-0.0871552 0.996195 0)
(0 0 -1)
(-1 0 0)
(-0.257394 -0.966306 -0)
(0 0 -1)
(-1 0 0)
(0 0 -1)
(-1 0 0)
(0 0 -1)
(0 -1 0)
(-0 0 -1)
(0 1 0)
(0 -0 -1)
(1 0 0)
(0 0 -1)
(0.0871563 -0.996195 0)
(0 0 -1)
(0.257395 0.966306 0)
(0 0 1)
(-1 0 0)
(0 1 0)
(0 0 1)
(0 -1 0)
(0 0 1)
(-1 0 0)
(-0.0871552 0.996195 0)
(0 0 1)
(-1 0 0)
(-0.257394 -0.966306 0)
(0 0 1)
(-1 0 0)
(0 0 1)
(-1 0 0)
(0 0 1)
(0 -1 0)
(0 0 1)
(0 1 0)
(0 0 1)
(1 0 0)
(0 0 1)
(0.0871563 -0.996195 0)
(0 0 1)
(0.257395 0.966306 0)
)

// normal volume types

50
(
0
0
0
0
0
0
0
0
0
0
0
0
0
0
0
0
0
0
0
0
0
0
0
0
0
0
0
0
0
0
0
0
0
0
0
0
0
0
0
0
0
0
0
0
0
0
0
0
0
0
)

// normalDirections

40
(
2(1 -1)
2(1 -1)
2(1 -1)
2(1 -1)
2(1 -1)
2(1 -1)
2(1 -1)
2(1 -1)
2(1 -1)
2(1 -1)
2(1 -1)
2(1 -1)
2(1 -1)
2(1 -1)
2(1 -1)
2(1 -1)
2(1 -1)
2(1 -1)
2(1 -1)
2(1 -1)
2(1 -1)
2(1 -1)
2(1 -1)
2(1 -1)
2(1 -1)
2(1 -1)
2(1 -1)
2(1 -1)
2(1 -1)
2(1 -1)
2(1 -1)
2(1 -1)
2(1 -1)
2(1 -1)
2(1 -1)
2(1 -1)
2(1 -1)
2(1 -1)
2(1 -1)
2(1 -1)
)

// edgeNormals

40
(
2(0 1)
2(2 3)
2(2 4)
2(5 6)
2(5 7)
2(8 9)
2(8 10)
2(11 12)
2(13 14)
2(15 16)
2(17 18)
2(19 20)
2(21 22)
2(23 24)
2(25 26)
2(25 27)
2(28 29)
2(30 31)
2(30 32)
2(33 34)
2(33 35)
2(36 37)
2(38 39)
2(40 41)
2(42 43)
2(44 45)
2(46 47)
2(48 49)
2(26 27)
2(3 1)
2(34 43)
2(9 10)
2(31 32)
2(6 16)
2(45 41)
2(20 18)
2(37 47)
2(12 7)
2(35 39)
2(14 24)
)

// featurePointNormals

24
(
3(0 1 3)
3(2 3 4)
3(5 6 16)
3(5 6 7)
3(8 9 18)
3(8 9 10)
3(15 16 20)
3(17 18 20)
3(25 26 27)
3(25 26 29)
3(30 31 32)
3(30 31 41)
3(33 34 43)
3(33 34 35)
3(40 41 45)
3(42 43 45)
3(5 7 12)
3(8 10 14)
3(11 12 22)
3(13 14 24)
3(30 32 37)
3(33 35 39)
3(36 37 47)
3(38 39 49)
)

// featurePointEdges

24
(
3(1 29 0)
3(1 28 2)
3(9 33 3)
3(3 32 4)
3(10 30 5)
3(5 31 6)
3(9 34 11)
3(11 35 10)
3(14 28 15)
3(16 29 14)
3(17 32 18)
3(23 33 17)
3(24 30 19)
3(19 31 20)
3(23 34 25)
3(25 35 24)
3(7 37 4)
3(8 38 6)
3(12 36 7)
3(13 39 8)
3(21 37 18)
3(22 38 20)
3(26 36 21)
3(27 39 22)
)

// regionEdges

36
(
0
1
2
3
4
5
6
7
8
9
10
11
12
13
14
15
16
17
18
19
20
21
22
23
24
25
26
27
28
29
30
31
32
33
34
35
)



// ************************************************************************* //
