/*--------------------------------*- C++ -*----------------------------------*\
| =========                 |                                                 |
| \\      /  F ield         | OpenFOAM: The Open Source CFD Toolbox           |
|  \\    /   O peration     | Version:  v2012                                 |
|   \\  /    A nd           | Website:  www.openfoam.com                      |
|    \\/     M anipulation  |                                                 |
\*---------------------------------------------------------------------------*/
FoamFile
{
    version     2.0;
    format      ascii;
    class       volScalarField;
    object      nut;
}
// * * * * * * * * * * * * * * * * * * * * * * * * * * * * * * * * * * * * * //

dimensions      [0 2 -1 0 0 0 0];

internalField   uniform 0;

boundaryField
{
    inlet
    {
        type            calculated;
        value           uniform 0;
    }

    outlet_left
    {
        type            calculated;
        value           uniform 0;
    }
	
	outlet_right
    {
        type            calculated;
        value           uniform 0;
    }

    topBottom
    {
        type            calculated;
        value           uniform 0;
    }

    nozzle
    {
        type            nutkWallFunction;
        value           uniform 0;
    }

    back
    {
        type            empty;
    }

    front
    {
        type            empty;
    }
}


// ************************************************************************* //